<?xml version="1.0" encoding="UTF-8"?>

<!-- generated on 2026-03-05T13:48:46.291045+01:00 by Eclipse SUMO netedit v1_26_0+0170-ea80071bc32
<neteditConfiguration xmlns:xsi="http://www.w3.org/2001/XMLSchema-instance" xsi:noNamespaceSchemaLocation="http://sumo.dlr.de/xsd/neteditConfiguration.xsd">

    <input>
        <sumo-net-file value="/Users/aminissn/TranscalityGithub/netedit-mvp/test.net.xml"/>
    </input>

    <output>
        <output-file value="/Users/aminissn/TranscalityGithub/netedit-mvp/test.net.xml"/>
        <output.street-names value="true"/>
    </output>

    <processing>
        <geometry.min-radius.fix.railways value="false"/>
        <geometry.avoid-overlap value="false"/>
        <geometry.max-grade.fix value="false"/>
        <offset.disable-normalization value="true"/>
        <lefthand value="0"/>
    </processing>

    <building_defaults>
        <default.spreadtype value="roadCenter"/>
    </building_defaults>

    <junctions>
        <no-internal-links value="true"/>
        <no-turnarounds value="true"/>
        <junctions.corner-detail value="5"/>
        <junctions.limit-turn-speed value="5.50"/>
        <rectangular-lane-cut value="0"/>
    </junctions>

    <pedestrian>
        <walkingareas value="0"/>
    </pedestrian>

</neteditConfiguration>
-->

<net version="1.20" spreadType="roadCenter" junctionCornerDetail="5" limitTurnSpeed="5.50" avoidOverlap="0" xmlns:xsi="http://www.w3.org/2001/XMLSchema-instance" xsi:noNamespaceSchemaLocation="http://sumo.dlr.de/xsd/net_file.xsd">

    <location netOffset="-390644.77,-5170204.98" convBoundary="3398.01,8500.78,4006.38,9095.09" origBoundary="7.553824,46.663491,7.700335,46.804382" projParameter="+proj=utm +zone=32 +ellps=GRS80 +towgs84=0,0,0,0,0,0,0         +units=m +no_defs +north"/>

    <edge id="-1425045181" from="574315223" to="574315222" name="Florastrasse" priority="3" type="highway.residential" shape="3674.88,8929.85 3679.06,8928.94 3683.75,8928.85 3688.74,8929.69 3719.60,8938.48">
        <lane id="-1425045181_0" index="0" allow="passenger taxi bus delivery motorcycle bicycle" speed="6.60" length="46.08" shape="3681.97,8927.28 3683.87,8927.25 3689.09,8928.13 3717.10,8936.10">
            <param key="origId" value="1425045181"/>
            <param key="originalSpeed" value="8.33"/>
            <param key="speedFactor" value="0.79"/>
        </lane>
        <param key="highway" value="residential"/>
        <param key="maxspeed" value="30"/>
        <param key="name" value="Florastrasse"/>
        <param key="osmDefaults" value="numLanes"/>
        <param key="zone:maxspeed" value="DE:30"/>
    </edge>
    <edge id="-172007366#0" from="574315220" to="574315215" name="Alpenstrasse" priority="3" type="highway.residential" shape="3801.96,8962.20 3816.89,8888.49 3825.99,8843.53 3831.59,8816.58 3832.41,8813.13 3832.56,8812.50 3832.76,8811.63 3834.01,8807.21">
        <lane id="-172007366#0_0" index="0" allow="passenger taxi bus delivery motorcycle bicycle" speed="8.33" length="158.28" shape="3800.39,8961.88 3815.32,8888.17 3824.42,8843.21 3830.03,8816.23 3830.59,8813.85">
            <param key="origId" value="172007366 172124017"/>
            <param key="originalSpeed" value="8.33"/>
            <param key="speedFactor" value="1.00"/>
        </lane>
        <param key="highway" value="residential"/>
        <param key="maxspeed" value="30"/>
        <param key="name" value="Alpenstrasse"/>
        <param key="osmDefaults" value="numLanes"/>
        <param key="zone:maxspeed" value="DE:30"/>
    </edge>
    <edge id="-172010657#2" from="574315215" to="574315233" name="Mittlere Strasse" priority="3" type="highway.residential" shape="3834.01,8807.21 3878.46,8818.10 3899.80,8823.87 3921.70,8830.25">
        <lane id="-172010657#2_0" index="0" allow="passenger taxi bus delivery motorcycle bicycle" speed="8.33" length="90.68" shape="3841.49,8807.40 3878.86,8816.55 3900.23,8822.33 3922.15,8828.71">
            <param key="origId" value="172010657"/>
            <param key="originalSpeed" value="13.89"/>
            <param key="speedFactor" value="0.60"/>
        </lane>
        <param key="cycleway" value="lane"/>
        <param key="highway" value="residential"/>
        <param key="maxspeed" value="50"/>
        <param key="name" value="Mittlere Strasse"/>
        <param key="osmDefaults" value="numLanes"/>
    </edge>
    <edge id="-172124019#0" from="574315216" to="574315215" name="Mittlere Strasse" priority="3" type="highway.residential">
        <lane id="-172124019#0_0" index="0" allow="passenger taxi bus delivery motorcycle bicycle" speed="8.33" length="60.94" shape="3782.50,8793.09 3827.27,8803.93">
            <param key="origId" value="172124019"/>
            <param key="originalSpeed" value="13.89"/>
            <param key="speedFactor" value="0.60"/>
        </lane>
        <param key="cycleway" value="lane"/>
        <param key="highway" value="residential"/>
        <param key="maxspeed" value="50"/>
        <param key="name" value="Mittlere Strasse"/>
        <param key="osmDefaults" value="numLanes"/>
    </edge>
    <edge id="-172124019#1" from="574315217" to="574315216" name="Mittlere Strasse" priority="3" type="highway.residential">
        <lane id="-172124019#1_0" index="0" allow="passenger taxi bus delivery motorcycle bicycle" speed="8.33" length="44.49" shape="3738.97,8782.49 3767.59,8789.47">
            <param key="origId" value="172124019"/>
            <param key="originalSpeed" value="13.89"/>
            <param key="speedFactor" value="0.60"/>
        </lane>
        <param key="cycleway" value="lane"/>
        <param key="highway" value="residential"/>
        <param key="maxspeed" value="50"/>
        <param key="name" value="Mittlere Strasse"/>
        <param key="osmDefaults" value="numLanes"/>
    </edge>
    <edge id="-172124019#2" from="254258311" to="574315217" name="Mittlere Strasse" priority="3" type="highway.residential" shape="3621.78,8755.86 3630.35,8757.94 3649.79,8762.47 3731.56,8782.33">
        <lane id="-172124019#2_0" index="0" allow="passenger taxi bus delivery motorcycle bicycle" speed="8.33" length="112.93" shape="3631.78,8756.63 3650.16,8760.91 3724.98,8779.08">
            <param key="origId" value="172124019"/>
            <param key="originalSpeed" value="13.89"/>
            <param key="speedFactor" value="0.60"/>
        </lane>
        <param key="cycleway" value="lane"/>
        <param key="highway" value="residential"/>
        <param key="maxspeed" value="50"/>
        <param key="name" value="Mittlere Strasse"/>
        <param key="osmDefaults" value="numLanes"/>
    </edge>
    <edge id="-23478488#0" from="574315212" to="254258311" name="Mattenstrasse" priority="3" type="highway.residential" shape="3604.12,8695.59 3605.91,8700.48 3607.44,8705.38 3608.65,8711.58 3610.03,8718.22 3617.69,8742.68 3620.71,8752.28 3621.78,8755.86">
        <lane id="-23478488#0_0" index="0" allow="passenger taxi bus delivery motorcycle bicycle" speed="8.36" length="62.87" shape="3608.82,8704.44 3608.99,8704.99 3610.22,8711.26 3611.58,8717.82 3619.22,8742.20 3620.52,8746.35">
            <param key="origId" value="23478488"/>
            <param key="originalSpeed" value="8.33"/>
            <param key="speedFactor" value="1.00"/>
        </lane>
        <param key="highway" value="residential"/>
        <param key="maxspeed" value="30"/>
        <param key="name" value="Mattenstrasse"/>
        <param key="osmDefaults" value="numLanes"/>
    </edge>
    <edge id="-23478488#1" from="574315197" to="574315212" name="Mattenstrasse" priority="3" type="highway.residential" shape="3592.40,8631.25 3593.34,8639.91 3593.69,8648.82 3594.31,8655.36 3597.12,8670.70 3600.56,8685.51 3604.12,8695.59">
        <lane id="-23478488#1_0" index="0" allow="passenger taxi bus delivery motorcycle bicycle" speed="8.36" length="65.69" shape="3594.57,8636.45 3594.94,8639.79 3595.29,8648.71 3595.90,8655.14 3598.69,8670.37 3602.10,8685.06 3602.34,8685.74">
            <param key="origId" value="23478488"/>
            <param key="originalSpeed" value="8.33"/>
            <param key="speedFactor" value="1.00"/>
        </lane>
        <param key="highway" value="residential"/>
        <param key="maxspeed" value="30"/>
        <param key="name" value="Mattenstrasse"/>
        <param key="osmDefaults" value="numLanes"/>
    </edge>
    <edge id="-23478489" from="1110911149" to="254258323" name="Industriestrasse" priority="3" type="highway.residential" shape="3398.01,8815.30 3406.34,8818.46 3409.78,8819.76 3426.70,8826.16 3438.43,8830.60 3447.92,8834.21 3457.52,8837.58 3459.52,8838.32 3496.12,8851.58 3504.76,8853.96 3508.24,8854.91 3648.72,8893.56 3653.18,8893.92 3657.51,8894.01 3660.65,8893.63 3663.65,8893.03">
        <lane id="-23478489_0" index="0" allow="passenger taxi bus delivery motorcycle bicycle" speed="7.14" length="277.88" shape="3398.58,8813.80 3406.91,8816.96 3410.35,8818.26 3427.27,8824.66 3439.00,8829.10 3448.47,8832.71 3458.05,8836.07 3460.07,8836.82 3496.61,8850.05 3505.18,8852.42 3508.66,8853.37 3649.00,8891.98 3653.26,8892.32 3655.89,8892.38">
            <param key="origId" value="23478489"/>
            <param key="originalSpeed" value="8.33"/>
            <param key="speedFactor" value="0.86"/>
        </lane>
        <param key="highway" value="residential"/>
        <param key="name" value="Industriestrasse"/>
        <param key="osmDefaults" value="numLanes speed"/>
    </edge>
    <edge id="-23478506#0" from="254258323" to="254258311" name="Militärstrasse" priority="3" type="highway.residential" shape="3663.65,8893.03 3656.07,8867.99 3643.67,8826.99 3632.69,8790.67 3624.58,8763.87 3622.86,8758.85 3621.78,8755.86">
        <lane id="-23478506#0_0" index="0" allow="passenger taxi bus delivery motorcycle bicycle" speed="8.33" length="143.42" shape="3659.93,8886.25 3654.54,8868.45 3642.14,8827.45 3631.16,8791.13 3623.49,8765.79">
            <param key="origId" value="23478506"/>
            <param key="originalSpeed" value="8.33"/>
            <param key="speedFactor" value="1.00"/>
        </lane>
        <param key="cycleway" value="lane"/>
        <param key="highway" value="residential"/>
        <param key="name" value="Militärstrasse"/>
        <param key="osmDefaults" value="numLanes speed"/>
    </edge>
    <edge id="-23478506#1" from="574315223" to="254258323" name="Militärstrasse" priority="3" type="highway.residential" shape="3674.88,8929.85 3668.56,8908.84 3666.46,8901.90 3663.65,8893.03">
        <lane id="-23478506#1_0" index="0" allow="passenger taxi bus delivery motorcycle bicycle" speed="8.33" length="38.50" shape="3671.34,8923.65 3667.03,8909.30 3664.93,8902.37 3664.20,8900.06">
            <param key="origId" value="23478506"/>
            <param key="originalSpeed" value="8.33"/>
            <param key="speedFactor" value="1.00"/>
        </lane>
        <param key="cycleway" value="lane"/>
        <param key="highway" value="residential"/>
        <param key="name" value="Militärstrasse"/>
        <param key="osmDefaults" value="numLanes speed"/>
    </edge>
    <edge id="-45242058#0" from="574315213" to="574315230" name="Schönaustrasse" priority="3" type="highway.residential" shape="3870.89,8677.91 3893.19,8696.08 3900.52,8702.43 3907.22,8707.98">
        <lane id="-45242058#0_0" index="0" allow="passenger taxi bus delivery motorcycle bicycle" speed="5.21" length="47.16" shape="3877.80,8681.48 3894.22,8694.85 3901.55,8701.21 3908.24,8706.75">
            <param key="origId" value="45242058"/>
            <param key="originalSpeed" value="8.33"/>
            <param key="speedFactor" value="0.63"/>
        </lane>
        <param key="highway" value="residential"/>
        <param key="maxspeed" value="30"/>
        <param key="name" value="Schönaustrasse"/>
        <param key="osmDefaults" value="numLanes"/>
    </edge>
    <edge id="-45242058#1" from="574315210" to="574315213" name="Schönaustrasse" priority="3" type="highway.residential" shape="3814.12,8644.68 3830.63,8652.55 3838.89,8656.92 3846.45,8661.21 3853.18,8665.36 3861.36,8670.99 3870.89,8677.91">
        <lane id="-45242058#1_0" index="0" allow="passenger taxi bus delivery motorcycle bicycle" speed="5.21" length="65.94" shape="3818.30,8644.90 3831.35,8651.12 3839.66,8655.52 3847.26,8659.83 3854.05,8664.02 3862.28,8669.68 3866.01,8672.39">
            <param key="origId" value="45242058"/>
            <param key="originalSpeed" value="8.33"/>
            <param key="speedFactor" value="0.63"/>
        </lane>
        <param key="highway" value="residential"/>
        <param key="maxspeed" value="30"/>
        <param key="name" value="Schönaustrasse"/>
        <param key="osmDefaults" value="numLanes"/>
    </edge>
    <edge id="-45242061#0" from="574315213" to="574315224" name="Alpenstrasse" priority="3" type="highway.residential" shape="3870.89,8677.91 3876.07,8670.81 3914.69,8619.07 3990.56,8519.23 3999.00,8508.66 4000.82,8506.62 4002.64,8504.64 4006.38,8500.78">
        <lane id="-45242061#0_0" index="0" allow="passenger taxi bus delivery motorcycle bicycle" speed="4.58" length="223.07" shape="3873.84,8671.16 3874.78,8669.86 3913.41,8618.11 3989.30,8518.25 3997.78,8507.63 3999.63,8505.55 4001.48,8503.54 4005.23,8499.67">
            <param key="origId" value="45242061"/>
            <param key="originalSpeed" value="8.33"/>
            <param key="speedFactor" value="0.55"/>
        </lane>
        <param key="highway" value="residential"/>
        <param key="maxspeed" value="30"/>
        <param key="name" value="Alpenstrasse"/>
        <param key="osmDefaults" value="numLanes"/>
        <param key="zone:maxspeed" value="DE:30"/>
    </edge>
    <edge id="-45242061#1" from="574315215" to="574315213" name="Alpenstrasse" priority="3" type="highway.residential" shape="3834.01,8807.21 3834.89,8804.09 3866.33,8686.96 3868.04,8682.61 3869.38,8680.21 3870.89,8677.91">
        <lane id="-45242061#1_0" index="0" allow="passenger taxi bus delivery motorcycle bicycle" speed="4.58" length="134.67" shape="3834.41,8799.72 3864.81,8686.46 3865.92,8683.63">
            <param key="origId" value="45242061"/>
            <param key="originalSpeed" value="8.33"/>
            <param key="speedFactor" value="0.55"/>
        </lane>
        <param key="highway" value="residential"/>
        <param key="maxspeed" value="30"/>
        <param key="name" value="Alpenstrasse"/>
        <param key="osmDefaults" value="numLanes"/>
        <param key="zone:maxspeed" value="DE:30"/>
    </edge>
    <edge id="-45242062#1" from="574315216" to="574315210" name="Florastrasse" priority="3" type="highway.residential" shape="3774.78,8792.87 3776.09,8789.21 3777.23,8784.79 3814.12,8644.68">
        <lane id="-45242062#1_0" index="0" allow="passenger taxi bus delivery motorcycle bicycle" speed="6.88" length="153.33" shape="3775.49,8785.11 3775.68,8784.39 3811.59,8648.01">
            <param key="origId" value="45242062"/>
            <param key="originalSpeed" value="8.33"/>
            <param key="speedFactor" value="0.83"/>
        </lane>
        <param key="highway" value="residential"/>
        <param key="maxspeed" value="30"/>
        <param key="name" value="Florastrasse"/>
        <param key="osmDefaults" value="numLanes"/>
        <param key="zone:maxspeed" value="DE:30"/>
    </edge>
    <edge id="-45242062#2" from="574315222" to="574315216" name="Florastrasse" priority="3" type="highway.residential" shape="3719.60,8938.48 3722.51,8929.81 3727.08,8917.66 3734.06,8899.10 3747.44,8863.56 3756.11,8840.52 3770.17,8803.12 3773.20,8796.53 3774.78,8792.87">
        <lane id="-45242062#2_0" index="0" allow="passenger taxi bus delivery motorcycle bicycle" speed="6.88" length="155.74" shape="3719.06,8935.07 3721.00,8929.27 3725.58,8917.10 3732.56,8898.54 3745.94,8863.00 3754.61,8839.96 3768.69,8802.50 3770.14,8799.35">
            <param key="origId" value="45242062"/>
            <param key="originalSpeed" value="8.33"/>
            <param key="speedFactor" value="0.83"/>
        </lane>
        <param key="highway" value="residential"/>
        <param key="maxspeed" value="30"/>
        <param key="name" value="Florastrasse"/>
        <param key="osmDefaults" value="numLanes"/>
        <param key="zone:maxspeed" value="DE:30"/>
    </edge>
    <edge id="-45242063#0" from="574315219" to="574315217" name="Friedheimstrasse" priority="3" type="highway.residential" shape="3745.16,8729.03 3732.33,8779.31 3731.56,8782.33">
        <lane id="-45242063#0_0" index="0" allow="passenger taxi bus delivery motorcycle bicycle" speed="5.30" length="55.01" shape="3744.92,8736.46 3734.90,8775.72">
            <param key="origId" value="45242063"/>
            <param key="originalSpeed" value="8.33"/>
            <param key="speedFactor" value="0.64"/>
        </lane>
        <param key="highway" value="residential"/>
        <param key="maxspeed" value="30"/>
        <param key="name" value="Friedheimstrasse"/>
        <param key="osmDefaults" value="numLanes"/>
    </edge>
    <edge id="-45242063#1" from="574315218" to="574315219" name="Friedheimstrasse" priority="3" type="highway.residential">
        <lane id="-45242063#1_0" index="0" allow="passenger taxi bus delivery motorcycle bicycle" speed="5.30" length="53.02" shape="3759.58,8681.42 3748.55,8722.58">
            <param key="origId" value="45242063"/>
            <param key="originalSpeed" value="8.33"/>
            <param key="speedFactor" value="0.64"/>
        </lane>
        <param key="highway" value="residential"/>
        <param key="maxspeed" value="30"/>
        <param key="name" value="Friedheimstrasse"/>
        <param key="osmDefaults" value="numLanes"/>
    </edge>
    <edge id="-45242064#0" from="574315197" to="574315218" name="Nünenenstrasse" priority="3" type="highway.residential" shape="3592.40,8631.25 3597.41,8633.33 3604.65,8635.85 3627.60,8643.86 3641.34,8648.81 3655.55,8653.31 3758.89,8677.82">
        <lane id="-45242064#0_0" index="0" allow="passenger taxi bus delivery motorcycle bicycle" speed="5.94" length="173.12" shape="3598.01,8631.84 3605.18,8634.34 3628.13,8642.35 3641.85,8647.29 3655.98,8651.77 3756.05,8675.50">
            <param key="origId" value="45242064"/>
            <param key="originalSpeed" value="8.33"/>
            <param key="speedFactor" value="0.71"/>
        </lane>
        <param key="highway" value="residential"/>
        <param key="maxspeed" value="30"/>
        <param key="name" value="Nünenenstrasse"/>
        <param key="osmDefaults" value="numLanes"/>
    </edge>
    <edge id="-45242068#0" from="574315212" to="574315219" name="Gantrischstrasse" priority="3" type="highway.residential">
        <lane id="-45242068#0_0" index="0" allow="passenger taxi bus delivery motorcycle bicycle" speed="6.42" length="144.95" shape="3614.13,8696.32 3738.47,8725.80">
            <param key="origId" value="45242068"/>
            <param key="originalSpeed" value="8.33"/>
            <param key="speedFactor" value="0.77"/>
        </lane>
        <param key="highway" value="residential"/>
        <param key="maxspeed" value="30"/>
        <param key="name" value="Gantrischstrasse"/>
        <param key="osmDefaults" value="numLanes"/>
        <param key="zone:maxspeed" value="DE:30"/>
    </edge>
    <edge id="-45242068#1" from="574315200" to="574315212" name="Gantrischstrasse" priority="3" type="highway.residential" shape="3468.70,8649.88 3537.17,8676.60 3559.90,8683.65 3581.64,8690.20 3604.12,8695.59">
        <lane id="-45242068#1_0" index="0" allow="passenger taxi bus delivery motorcycle bicycle" speed="6.42" length="143.12" shape="3469.28,8648.39 3537.70,8675.09 3560.37,8682.12 3582.06,8688.65 3594.88,8691.73">
            <param key="origId" value="45242068"/>
            <param key="originalSpeed" value="8.33"/>
            <param key="speedFactor" value="0.77"/>
        </lane>
        <param key="highway" value="residential"/>
        <param key="maxspeed" value="30"/>
        <param key="name" value="Gantrischstrasse"/>
        <param key="osmDefaults" value="numLanes"/>
        <param key="zone:maxspeed" value="DE:30"/>
    </edge>
    <edge id="-521790624#0" from="574315176" to="254258311" name="Mittlere Strasse" priority="3" type="highway.residential" shape="3451.70,8712.10 3455.72,8713.17 3472.26,8717.50 3531.04,8732.88 3549.42,8737.68 3594.67,8749.55 3605.72,8752.26 3621.78,8755.86">
        <lane id="-521790624#0_0" index="0" allow="passenger taxi bus delivery motorcycle bicycle" speed="8.33" length="175.63" shape="3452.11,8710.55 3456.13,8711.62 3472.67,8715.95 3531.44,8731.33 3549.83,8736.13 3595.06,8748.00 3606.09,8750.70 3612.87,8752.22">
            <param key="origId" value="521790624"/>
            <param key="originalSpeed" value="13.89"/>
            <param key="speedFactor" value="0.60"/>
        </lane>
        <param key="cycleway" value="lane"/>
        <param key="highway" value="residential"/>
        <param key="maxspeed" value="50"/>
        <param key="name" value="Mittlere Strasse"/>
        <param key="osmDefaults" value="numLanes"/>
    </edge>
    <edge id="1425045181" from="574315222" to="574315223" name="Florastrasse" priority="3" type="highway.residential" shape="3719.60,8938.48 3688.74,8929.69 3683.75,8928.85 3679.06,8928.94 3674.88,8929.85">
        <lane id="1425045181_0" index="0" allow="passenger taxi bus delivery motorcycle bicycle" speed="6.60" length="46.08" shape="3716.22,8939.18 3688.39,8931.25 3683.63,8930.45 3682.66,8930.47">
            <param key="origId" value="1425045181"/>
            <param key="originalSpeed" value="8.33"/>
            <param key="speedFactor" value="0.79"/>
        </lane>
        <param key="highway" value="residential"/>
        <param key="maxspeed" value="30"/>
        <param key="name" value="Florastrasse"/>
        <param key="osmDefaults" value="numLanes"/>
        <param key="zone:maxspeed" value="DE:30"/>
    </edge>
    <edge id="172010657#2" from="574315233" to="574315215" name="Mittlere Strasse" priority="3" type="highway.residential" shape="3921.70,8830.25 3899.80,8823.87 3878.46,8818.10 3834.01,8807.21">
        <lane id="172010657#2_0" index="0" allow="passenger taxi bus delivery motorcycle bicycle" speed="8.33" length="90.68" shape="3921.25,8831.79 3899.37,8825.41 3878.06,8819.65 3840.73,8810.50">
            <param key="origId" value="172010657"/>
            <param key="originalSpeed" value="13.89"/>
            <param key="speedFactor" value="0.60"/>
        </lane>
        <param key="cycleway" value="lane"/>
        <param key="highway" value="residential"/>
        <param key="maxspeed" value="50"/>
        <param key="name" value="Mittlere Strasse"/>
        <param key="osmDefaults" value="numLanes"/>
    </edge>
    <edge id="172124017" from="574315215" to="574315220" name="Alpenstrasse" priority="3" type="highway.residential" shape="3834.01,8807.21 3832.76,8811.63 3832.56,8812.50 3832.41,8813.13 3831.59,8816.58 3825.99,8843.53 3816.89,8888.49 3801.96,8962.20">
        <lane id="172124017_0" index="0" allow="passenger taxi bus delivery motorcycle bicycle" speed="8.33" length="158.28" shape="3833.68,8814.72 3833.15,8816.93 3827.56,8843.85 3818.46,8888.81 3803.53,8962.52">
            <param key="origId" value="172124017 172007366"/>
            <param key="originalSpeed" value="8.33"/>
            <param key="speedFactor" value="1.00"/>
        </lane>
        <param key="highway" value="residential"/>
        <param key="maxspeed" value="30"/>
        <param key="name" value="Alpenstrasse"/>
        <param key="osmDefaults" value="numLanes"/>
        <param key="zone:maxspeed" value="DE:30"/>
    </edge>
    <edge id="172124019#0" from="574315215" to="574315216" name="Mittlere Strasse" priority="3" type="highway.residential">
        <lane id="172124019#0_0" index="0" allow="passenger taxi bus delivery motorcycle bicycle" speed="8.33" length="60.94" shape="3826.51,8807.04 3781.75,8796.20">
            <param key="origId" value="172124019"/>
            <param key="originalSpeed" value="13.89"/>
            <param key="speedFactor" value="0.60"/>
        </lane>
        <param key="cycleway" value="lane"/>
        <param key="highway" value="residential"/>
        <param key="maxspeed" value="50"/>
        <param key="name" value="Mittlere Strasse"/>
        <param key="osmDefaults" value="numLanes"/>
    </edge>
    <edge id="172124019#1" from="574315216" to="574315217" name="Mittlere Strasse" priority="3" type="highway.residential">
        <lane id="172124019#1_0" index="0" allow="passenger taxi bus delivery motorcycle bicycle" speed="8.33" length="44.49" shape="3766.83,8792.58 3738.21,8785.60">
            <param key="origId" value="172124019"/>
            <param key="originalSpeed" value="13.89"/>
            <param key="speedFactor" value="0.60"/>
        </lane>
        <param key="cycleway" value="lane"/>
        <param key="highway" value="residential"/>
        <param key="maxspeed" value="50"/>
        <param key="name" value="Mittlere Strasse"/>
        <param key="osmDefaults" value="numLanes"/>
    </edge>
    <edge id="172124019#2" from="574315217" to="254258311" name="Mittlere Strasse" priority="3" type="highway.residential" shape="3731.56,8782.33 3649.79,8762.47 3630.35,8757.94 3621.78,8755.86">
        <lane id="172124019#2_0" index="0" allow="passenger taxi bus delivery motorcycle bicycle" speed="8.33" length="112.93" shape="3724.22,8782.19 3649.42,8764.03 3631.03,8759.74">
            <param key="origId" value="172124019"/>
            <param key="originalSpeed" value="13.89"/>
            <param key="speedFactor" value="0.60"/>
        </lane>
        <param key="cycleway" value="lane"/>
        <param key="highway" value="residential"/>
        <param key="maxspeed" value="50"/>
        <param key="name" value="Mittlere Strasse"/>
        <param key="osmDefaults" value="numLanes"/>
    </edge>
    <edge id="23478488#0" from="254258311" to="574315212" name="Mattenstrasse" priority="3" type="highway.residential" shape="3621.78,8755.86 3620.71,8752.28 3617.69,8742.68 3610.03,8718.22 3608.65,8711.58 3607.44,8705.38 3605.91,8700.48 3604.12,8695.59">
        <lane id="23478488#0_0" index="0" allow="passenger taxi bus delivery motorcycle bicycle" speed="8.36" length="62.87" shape="3617.45,8747.26 3616.16,8743.16 3608.48,8718.62 3607.08,8711.90 3605.89,8705.77 3605.81,8705.54">
            <param key="origId" value="23478488"/>
            <param key="originalSpeed" value="8.33"/>
            <param key="speedFactor" value="1.00"/>
        </lane>
        <param key="highway" value="residential"/>
        <param key="maxspeed" value="30"/>
        <param key="name" value="Mattenstrasse"/>
        <param key="osmDefaults" value="numLanes"/>
    </edge>
    <edge id="23478488#1" from="574315212" to="574315197" name="Mattenstrasse" priority="3" type="highway.residential" shape="3604.12,8695.59 3600.56,8685.51 3597.12,8670.70 3594.31,8655.36 3593.69,8648.82 3593.34,8639.91 3592.40,8631.25">
        <lane id="23478488#1_0" index="0" allow="passenger taxi bus delivery motorcycle bicycle" speed="8.36" length="65.69" shape="3599.32,8686.80 3599.02,8685.96 3595.55,8671.03 3592.72,8655.58 3592.09,8648.93 3591.74,8640.03 3591.39,8636.80">
            <param key="origId" value="23478488"/>
            <param key="originalSpeed" value="8.33"/>
            <param key="speedFactor" value="1.00"/>
        </lane>
        <param key="highway" value="residential"/>
        <param key="maxspeed" value="30"/>
        <param key="name" value="Mattenstrasse"/>
        <param key="osmDefaults" value="numLanes"/>
    </edge>
    <edge id="23478489" from="254258323" to="1110911149" name="Industriestrasse" priority="3" type="highway.residential" shape="3663.65,8893.03 3660.65,8893.63 3657.51,8894.01 3653.18,8893.92 3648.72,8893.56 3508.24,8854.91 3504.76,8853.96 3496.12,8851.58 3459.52,8838.32 3457.52,8837.58 3447.92,8834.21 3438.43,8830.60 3426.70,8826.16 3409.78,8819.76 3406.34,8818.46 3398.01,8815.30">
        <lane id="23478489_0" index="0" allow="passenger taxi bus delivery motorcycle bicycle" speed="7.14" length="277.88" shape="3656.52,8895.59 3653.10,8895.52 3648.44,8895.14 3507.82,8856.45 3504.34,8855.50 3495.63,8853.11 3458.97,8839.82 3456.98,8839.09 3447.37,8835.71 3437.86,8832.10 3426.13,8827.66 3409.21,8821.26 3405.77,8819.96 3397.44,8816.80">
            <param key="origId" value="23478489"/>
            <param key="originalSpeed" value="8.33"/>
            <param key="speedFactor" value="0.86"/>
        </lane>
        <param key="highway" value="residential"/>
        <param key="name" value="Industriestrasse"/>
        <param key="osmDefaults" value="numLanes speed"/>
    </edge>
    <edge id="23478506#0" from="254258311" to="254258323" name="Militärstrasse" priority="3" type="highway.residential" shape="3621.78,8755.86 3622.86,8758.85 3624.58,8763.87 3632.69,8790.67 3643.67,8826.99 3656.07,8867.99 3663.65,8893.03">
        <lane id="23478506#0_0" index="0" allow="passenger taxi bus delivery motorcycle bicycle" speed="8.33" length="143.42" shape="3626.50,8764.70 3634.22,8790.21 3645.20,8826.53 3657.60,8867.53 3662.99,8885.32">
            <param key="origId" value="23478506"/>
            <param key="originalSpeed" value="8.33"/>
            <param key="speedFactor" value="1.00"/>
        </lane>
        <param key="cycleway" value="lane"/>
        <param key="highway" value="residential"/>
        <param key="name" value="Militärstrasse"/>
        <param key="osmDefaults" value="numLanes speed"/>
    </edge>
    <edge id="23478506#1" from="254258323" to="574315223" name="Militärstrasse" priority="3" type="highway.residential" shape="3663.65,8893.03 3666.46,8901.90 3668.56,8908.84 3674.88,8929.85">